@<TRIPOS>MOLECULE
CO3
    5     4     1     0     0
SMALL
No Charge or Current Charge


@<TRIPOS>ATOM
      1 C01         -4.8010     1.3040     0.0190 c          1 CO3       1.089296  # PRM 8
      2 O01         -3.3900     1.0710     0.0610 oh         1 CO3       -0.74696  # PRM 8
      3 H01         -3.0330     1.9650     0.0850 ho         1 CO3       0.364816  # PRM 8
      4 O02         -5.1120     2.5180     0.0340 o          1 CO3       -0.85366  # PRM 8
      5 O03         -5.4850     0.2750    -0.0290 o          1 CO3       -0.85366  # RPT 8 COUL:CO3-4
@<TRIPOS>BOND
     1     1     2 1   
     2     1     4 1   
     3     1     5 1   
     4     2     3 1   
@<TRIPOS>SUBSTRUCTURE
     1 CO3         1 TEMP              0 ****  ****    0 ROOT
