@<TRIPOS>MOLECULE
WAT
    3     2     1     0     0
SMALL
bcc


@<TRIPOS>ATOM
      1 O01          0.6430    -1.3390    -0.4020 oh         1 WAT      -0.785000
      2 H01         -0.1310    -0.9680    -0.7690 ho         1 WAT       0.392000
      3 H02          1.3440    -0.8790    -0.8620 ho         1 WAT       0.392000
@<TRIPOS>BOND
     1     1     2 1   
     2     1     3 1   
@<TRIPOS>SUBSTRUCTURE
     1 WAT         1 TEMP              0 ****  ****    0 ROOT
